ipss.test.plugin.core/testData/adpter/psse/v33/renewable/regca_reeca_repca_bus1062_weak.raw
0, 100.00, 33, 0, 1, 60.00 / Public weak-grid REGCA1/REECA1/REPCA1 fixture
INTERPSS / POWERWORLD BUS-1062-UNIT-2 ACTIVE-PATH DISCRIMINATOR
0
1,'RENEWABLE PLANT',230.0000,2,1,1,1,1.0100,0.0000,1.1000,0.9000,1.1000,0.9000
2,'PLANT POI',230.0000,1,1,1,1,1.0000,0.0000,1.1000,0.9000,1.1000,0.9000
3,'INFINITE GRID',230.0000,3,1,1,1,1.0000,0.0000,1.1000,0.9000,1.1000,0.9000
0 / END OF BUS DATA, BEGIN LOAD DATA
0 / END OF LOAD DATA, BEGIN FIXED SHUNT DATA
0 / END OF FIXED SHUNT DATA, BEGIN GENERATOR DATA
1,'1',24.000,5.700,100.000,-100.000,1.01000,0,100.000,0.00000,0.10000,0.00000,0.00000,1.00000,1,100.0,100.000,-100.000,1,1.0000
3,'1',-24.000,-5.700,9999.000,-9999.000,1.00000,0,100.000,0.00000,0.01000,0.00000,0.00000,1.00000,1,100.0,9999.000,-9999.000,1,1.0000
0 / END OF GENERATOR DATA, BEGIN BRANCH DATA
1,2,'1',0.00500,0.10000,0.00000,0.00,0.00,0.00,0.00000,0.00000,0.00000,0.00000,1,1,0.00,1,1.0000
2,3,'1',0.01000,1.20000,0.00000,0.00,0.00,0.00,0.00000,0.00000,0.00000,0.00000,1,1,0.00,1,1.0000
0 / END OF BRANCH DATA, BEGIN TRANSFORMER DATA
0 / END OF TRANSFORMER DATA, BEGIN AREA DATA
0 / END OF AREA DATA, BEGIN TWO-TERMINAL DC DATA
0 / END OF TWO-TERMINAL DC DATA, BEGIN VSC DC LINE DATA
0 / END OF IMPEDANCE CORRECTION DATA
0 / END OF MULTI-TERMINAL DC DATA
0 / END OF MULTI-SECTION LINE DATA
0 / END OF ZONE DATA
0 / END OF INTER-AREA TRANSFER DATA
0 / END OF OWNER DATA
0 / END OF FACTS DEVICE DATA
0 / END OF SWITCHED SHUNT DATA
0 / END OF GNE DATA
0 / END OF INDUCTION MACHINE DATA
Q
